Circuit: * C:\users\cal\Desktop\uni\egb348\CompLab1Part2.asc


Date: Fri Aug 28 21:44:19 2020
Total elapsed time: 0.088 seconds.

tnom = 27
temp = 27
method = trap
totiter = 47
traniter = 0
tranpoints = 0
accept = 0
rejected = 0
matrix size = 8
fillins = 1
solver = Normal
Matrix Compiler1: 282 bytes object code size
Matrix Compiler2: 520 bytes object code size
